%mem=56000000
#HF/aug-cc-pVTZ opt freq

1htz
1H-Tetrazole
casno=288948
method=1
basis=18

0 1
N -0.7162040 -0.8985350 0.0000000
N -1.0919000 0.2900540 0.0000000
N 0.0000000 1.0364710 0.0000000
H -0.0576100 2.0247920 0.0000000
N 0.6209930 -0.9872770 0.0000000
C 1.0498150 0.2248320 0.0000000
H 2.0684990 0.5412300 0.0000000


