%mem=24000000
#HF/cc-pVTZ opt freq

1H tetrazole c CH-NH-N=N-N=
casno=288948
method=1
basis=6

0 1
7     -.716204    -.898535     .000000
7     -1.091900     .290054     .000000
7     .000000    1.036471     .000000
1     -.057610    2.024792     .000000
7     .620993    -.987277     .000000
6     1.049815     .224832     .000000
1     2.068499     .541230     .000000



