%mem=56000000
#mPW1PW91/STO-3G opt freq

1htz
1H-Tetrazole
casno=288948
method=25
basis=20

0 1
N -0.7382700 -0.9375060 0.0000000
N -1.1388090 0.2759370 0.0000000
N 0.0000000 1.0654990 0.0000000
H -0.0714380 2.0570310 0.0000000
N 0.6755340 -0.9912480 0.0000000
C 1.0676170 0.2465450 0.0000000
H 2.0765520 0.5749240 0.0000000


