%mem=56000000
#MPW1PW91/3-21G* opt freq

1htz
casno=288948
method=25
basis=8

0 1
N -0.7442560 -0.9688690 0.0000000
N -1.1724790 0.2870900 0.0000000
N 0.0000000 1.0853370 0.0000000
H -0.0700760 2.0954900 0.0000000
N 0.7015770 -1.0121440 0.0000000
C 1.0796650 0.2604750 0.0000000
H 2.0981880 0.6017600 0.0000000


