%mem=24000000
#mPW1PW91/aug-cc-pVDZ opt freq

1H tetrazole c CH-NH-N=N-N=
casno=288948
method=25
basis=17

0 1
7          -1.123293    -.254560    -.000
7           -.671576     .913277     .000
7            .650545     .809842    -.000
1           1.224004    1.621891    -.000
7           -.134646   -1.161053    -.000
6            .962183    -.483316     .000
1           1.955691    -.874535     .000

