%mem=56000000
#MP2/aug-cc-pVDZ

1htz
casno=288948
method=31
basis=17

0 1
N -0.7220880 -0.9413130 0.0000000
N -1.1282600 0.3175060 0.0000000
N 0.0000000 1.0555010 0.0000000
H -0.0614100 2.0678330 0.0000000
N 0.6396850 -1.0138260 0.0000000
C 1.0725630 0.2397040 0.0000000
H 2.1006760 0.5688700 0.0000000


