%NProc=8
%mem=424000000
#B2PLYP/cc-pVTZ opt freq

1htz
1H-Tetrazole
casno=288948
state=1
config=1
method=56
basis=6

0 1
N -0.7241020 -0.9272940 0.0000000
N -1.1234260 0.3011930 0.0000000
N 0.0000000 1.0561980 0.0000000
H -0.0635180 2.0650210 0.0000000
N 0.6405990 -1.0077410 0.0000000
C 1.0690850 0.2357340 0.0000000
H 2.0975190 0.5640780 0.0000000

