%mem=24000000
#QCISD/6-31G* OPT FREQ

1H tetrazole c CH-NH-N=N-N= casno=288948
method=5
basis=1

0,1
7   -0.726465   -0.928025    0.000000
7   -1.124007    0.301334    0.000000
7    0.000000    1.057392    0.000000
1   -0.064264    2.067238    0.000000
7    0.643969   -1.009007    0.000000
6    1.068554    0.236093    0.000000
1    2.098462    0.564346    0.000000

