%mem=56000000
#PBEPBE/6-311G* opt freq

1htz
casno=288948
method=61
basis=7

0 1
N -0.7163120 -0.9019340 0.0000000
N -1.0955200 0.2914200 0.0000000
N 0.0000000 1.0387750 0.0000000
H -0.0614790 2.0309940 0.0000000
N 0.6221510 -0.9894950 0.0000000
C 1.0528130 0.2257790 0.0000000
H 2.0723700 0.5429760 0.0000000


