%mem=56000000
#PBEPBE/cc-pVDZ opt freq

1htz
casno=288948
method=61
basis=5

0 1
N -0.7253220 -0.9251530 0.0000000
N -1.1215180 0.3031350 0.0000000
N 0.0000000 1.0571060 0.0000000
H -0.0573570 2.0695550 0.0000000
N 0.6379670 -1.0109160 0.0000000
C 1.0691900 0.2331110 0.0000000
H 2.1043280 0.5625760 0.0000000


