%NProc=8
%mem=424000000
#MP3=FULL/6-31G(d) opt freq

1htz
1H-Tetrazole
casno=288948
state=1
config=1
method=71
basis=1

0 1
N -0.7163540 -0.9018760 0.0000000
N -1.0954320 0.2914570 0.0000000
N 0.0000000 1.0388520 0.0000000
H -0.0614130 2.0310440 0.0000000
N 0.6222070 -0.9895940 0.0000000
C 1.0527020 0.2256860 0.0000000
H 2.0722570 0.5429660 0.0000000

