%mem=56000000
#PBEPBE/cc-pVDZ opt freq

1hpyraz
casno=288131
method=61
basis=5

0 1
H 2.1139580 0.7323140 0.0000000
C 1.1144890 0.3054000 0.0000000
H 1.2682390 -1.9065950 0.0000000
C 0.6644120 -1.0036900 0.0000000
H -1.4918650 -1.6843190 0.0000000
C -0.7477200 -0.8899220 0.0000000
N -1.1479000 0.3832130 0.0000000
H -0.0421110 2.0976290 0.0000000
N 0.0000000 1.0868220 0.0000000


