%mem=56000000
#PBEPBE/STO-3G opt freq

1hpyraz
1H-Pyrazole
casno=288131
method=61
basis=20

0 1
H 2.0899520 0.7170510 0.0000000
C 1.1051280 0.3128600 0.0000000
H 1.2716010 -1.8609650 0.0000000
C 0.6758860 -0.9801540 0.0000000
H -1.4417800 -1.6983620 0.0000000
C -0.7415520 -0.8968520 0.0000000
N -1.1561590 0.3485330 0.0000000
H -0.0634310 2.0900830 0.0000000
N 0.0000000 1.0996200 0.0000000


