%mem=56000000
#PBEPBE/6-311+G(3df,2p) opt freq

1hpyraz 1H-Pyrazole C3H4N2
casno=288131
method=61
basis=10

0 1
H 2.0980460 0.7272160 0.0000000
C 1.1073060 0.3069280 0.0000000
H 1.2625310 -1.8879260 0.0000000
C 0.6627360 -0.9954330 0.0000000
H -1.4753970 -1.6804580 0.0000000
C -0.7430990 -0.8899700 0.0000000
N -1.1425320 0.3752700 0.0000000
H -0.0491130 2.0888970 0.0000000
N 0.0000000 1.0851760 0.0000000



