%mem=56000000
#MPW1PW91/3-21G* opt freq

1himidaz
casno=288324
method=25
basis=8

0 1
N -0.7509810 -0.9918500 0.0000000
H 0.0015110 2.1282000 0.0000000
C 1.1294910 0.2969350 0.0000000
H 2.1291980 0.6918040 0.0000000
C 0.6512070 -0.9912070 0.0000000
H 1.2114880 -1.9089920 0.0000000
H -2.1163210 0.6641030 0.0000000
C -1.1088660 0.2869580 0.0000000
N 0.0000000 1.1159590 0.0000000


