%mem=24000000
#MP2/CEP-31G* opt freq

1H imidazole C3H4N2
casno=288324
method=3
basis=12

0 1
N   0.309375              0.000000              1.309375
H   0.312500              0.000000             -1.687500
C  -1.068750              0.000000             -0.284375
H  -1.918750             -0.000000             -0.790625
C  -0.934375              0.000000              1.028125
H  -1.675000              0.000000              1.687500
H   1.918750              0.000000              0.090625
C   0.934375              0.000000              0.190625
N   0.096875              0.000000             -0.775000

