%NProc=8
%mem=424000000
#B2PLYP=FULL/6-31+G** opt freq

1himidaz
1H-Imidazole
casno=288324
state=1
config=1
method=59
basis=4

0 1
7 -0.7135340 -0.9631680 0.0000000
1 -0.0138240 2.0525790 0.0000000
6 1.0855630 0.3069030 0.0000000
1 2.0759650 0.6505410 0.0000000
6 0.6176790 -0.9678970 0.0000000
1 1.1994410 -1.8415600 0.0000000
1 -2.0608640 0.6301050 0.0000000
6 -1.0709060 0.2848680 0.0000000
7 0.0000000 1.0724660 0.0000000


