%mem=24000000
#QCISD/6-31G* opt freq

1H imidazole C3H4N2 casno=288324
method=5
basis=1

0,1
7     -0.747537   -0.987930    0.000000
1     -0.010720    2.117694    0.000000
6      1.121573    0.298670    0.000000
1      2.124281    0.703659    0.000000
6      0.638189   -0.982647    0.000000
1      1.200558   -1.908254    0.000000
1     -2.103866    0.663130    0.000000
6     -1.089345    0.282174    0.000000
7      0.000000    1.107158    0.000000

