%mem=56000000
#PBEPBE/6-311+G(3df,2p) opt freq

1himidaz 1H-Imidazole C3H4N2
casno=288324
method=61
basis=10

0 1
N -0.7398360 -0.9799100 0.0000000
H -0.0085640 2.1072110 0.0000000
C 1.1162780 0.2969100 0.0000000
H 2.1134820 0.6982970 0.0000000
C 0.6352420 -0.9822940 0.0000000
H 1.1957850 -1.9014030 0.0000000
H -2.0973570 0.6615560 0.0000000
C -1.0889360 0.2822760 0.0000000
N 0.0000000 1.1017660 0.0000000



