%mem=56000000
#PBEPBE/cc-pVDZ opt freq

1himidaz
casno=288324
method=61
basis=5

0 1
N -0.7433260 -0.9889790 0.0000000
H -0.0110470 2.1188260 0.0000000
C 1.1216300 0.3022300 0.0000000
H 2.1273730 0.7114460 0.0000000
C 0.6351140 -0.9855220 0.0000000
H 1.2042560 -1.9129350 0.0000000
H -2.1098510 0.6652460 0.0000000
C -1.0913190 0.2818280 0.0000000
N 0.0000000 1.1070080 0.0000000


