%Nproc=8
%mem=436000000
#BLYP/6-31G opt freq

1H-tetrazole CH2N4
casno=288948
state=1
config=1
method=13
basis=9

0 1
X
X 1 1.0
C 1 1.0 2 90.0
N 1 rn1 2 90.0 3 an1
N 1 rn2 2 90.0 3 an2
N 1 rn3 2 90.0 3 an3
N 1 rn4 2 90.0 3 an4
H 3 rch 4 ach 5 180.0
H 4 rnh 5 anh 6 180.0

rn1         1.2568  
rn2         1.4368  
rn3         1.2445  
rn4         1.0075  
rch         1.0823  
rnh         1.0163  
an1        75.1237  
an2       134.8484  
an3       197.8317  
an4       276.4048  
ach       124.828   
anh       120.2641  


